!Experimental and Modeling Studies of C2H4/O2/Ar, C2H4/Methylal/O2/Ar and C2H4/Ethylal.O2/Ar Riche Flames and the Effect of Oxygenated Additives
!Veronique Dias and Jacques Vandooren                                                                                                                                                                                     
! Comb. and Flame 158 (2011) 848-859                                                                                                                                                                                    

ELEMENTS
   O    H    C    AR 
END

SPECIES
   H2                 H                  O                  O2                 OH                  ! species 1 to 5
   H2O                HO2                CH                 CH2                CH3                 ! species 6 to 10
   CH4                CO                 CO2                HCO                CH2O                ! species 11 to 15
   C2H                C2H2               C2H3               C2H4               C2H5                ! species 16 to 20
   C2H6               HCCO               CH2CO              HCCOH              CH2(S)              ! species 21 to 25
   C2H5OCO            H2O2               AR                 C2H5OCHO           C3H2                ! species 26 to 30
   C3H3               pC3H4              aC3H4              C4H2               H2C4O               ! species 31 to 35
   n-C4H3             i-C4H3             C4H4               n-C4H5             i-C4H5              ! species 36 to 40
   C4H6               C4H8               C4H7               C4H                C6H2                ! species 41 to 45
   C6H3               C6H4               C6H                C6H6               C6H5                ! species 46 to 50
   C6H6O              C6H5O              C5H6               C5H5               C5H5C2H3            ! species 51 to 55
   C5H5C2H2           C3H8               nC3H7              iC3H7              C3H6                ! species 56 to 60
   C3H5               CH3CHO             CH3CO              C7H7               C7H8                ! species 61 to 65
   C8H6               C8H8               C8H5               C8H7               C9H7                ! species 66 to 70
   C9H8               C10H8              C10H7              C10H7O             C10H7OH             ! species 71 to 75
   DMM                DMM1               DMM2               CH3OCH2O           CH3OCH2             ! species 76 to 80
   CH3OCHO            CH3OCO             CH3O               CH3OH              CH2OH               ! species 81 to 85
   FULVENE            C12H8A             C12H8B             C12H9              A3                  ! species 86 to 90
   DEM                C2H5OCH2OH         C2H5OCH2O          C2H4OCH2OH         C2H4OH              ! species 91 to 95
   C2H5OH             CH2CHO             CH3CH2O            CH3CHOH            CH2CH2OCH2OCH2CH3   ! species 96 to 100
   CH3CH2OCHOCH2CH3   CH3CHOCH2OCH2CH3   C2H5OCH2           FULVENYL           c-C6H4              ! species 101 to 105
   PHCH2              C10H10                                                                       ! species 106 to 107
END

REACTIONS CAL/MOLE
  H+O2 = OH+O 1.8600E+014 0.0000E+000 1.6790E+004 !                                                                                                                                                                                                                                                                                                                                                                                    WestbrOOk (1983)
  H2+O = H+OH 1.8200E+010 1.0000E+000 8.9000E+003 !                                                                                                                                                                                                                                                                                                                                                                                    WestbrOOk (1983)
  OH+H2 = H2O+H 1.1700E+009 1.3000E+000 3.6260E+003 !                                                                                                                                                                                                                                                                                                                                                                                    Miller (1992)
  OH+OH = H2O+O 3.1600E+012 0.0000E+000 1.1000E+003 !                                                                                                                                                                                                                                                                                                                                                                                    WestbrOOk (1983)
  H+H+M = H2+M 3.0200E+015 0.0000E+000 0.0000E+000
   H2O /1.800000E+001/   H2 /2.850000E+000/   O2 /1.140000E+000/
  H+OH+M = H2O+M 1.4100E+023 -2.0000E+000 0.0000E+000
   H2O /1.800000E+001/   H2 /2.850000E+000/   O2 /1.140000E+000/
  H+O2+M = HO2+M 1.6600E+015 0.0000E+000 -1.0000E+003
   H2O /1.800000E+001/   H2 /2.850000E+000/   O2 /1.140000E+000/
  H+HO2 = OH+OH 2.5000E+014 0.0000E+000 1.9000E+003 !                                                                                                                                                                                                                                                                                                                                                                                    WestbrOOk (1983)
  H+HO2 = H2+O2 2.5100E+013 0.0000E+000 7.0000E+002 !                                                                                                                                                                                                                                                                                                                                                                                    WestbrOOk (1983)
  HO2+O = O2+OH 5.0100E+013 0.0000E+000 1.0000E+003 !                                                                                                                                                                                                                                                                                                                                                                                    WestbrOOk (1983)
  OH+HO2 = H2O+O2 5.0100E+013 0.0000E+000 1.0000E+003 !                                                                                                                                                                                                                                                                                                                                                                                    WestbrOOk (1983)
  HO2+HO2 = H2O2+O2 1.0000E+013 0.0000E+000 1.0000E+003 !                                                                                                                                                                                                                                                                                                                                                                                    WestbrOOk (1983)
  H2O2+M = OH+OH+M 1.2000E+017 0.0000E+000 4.5500E+004
   H2O /1.800000E+001/   H2 /2.850000E+000/   O2 /1.140000E+000/
  H2O2+H = HO2+H2 1.7000E+012 0.0000E+000 3.7500E+003 !                                                                                                                                                                                                                                                                                                                                                                                    WestbrOOk (1983)
  H2O2+OH = H2O+HO2 1.0000E+013 0.0000E+000 1.8000E+003 !                                                                                                                                                                                                                                                                                                                                                                                    WestbrOOk (1983)
  H+O+M = OH+M 1.0000E+016 0.0000E+000 0.0000E+000
   H2O /1.800000E+001/   H2 /2.850000E+000/   O2 /1.140000E+000/
  CO+OH = CO2+H 6.3200E+006 1.5000E+000 -4.9700E+002 !                                                                                                                                                                                                                                                                                                                                                                                    BaulCH (1992)
  H+CH2O = HCO+H2 2.2900E+010 1.0500E+000 3.2800E+003 !                                                                                                                                                                                                                                                                                                                                                                                    BaulCH (1992)
  O+CH2O = HCO+OH 4.1600E+011 5.7000E-001 2.7630E+003 !                                                                                                                                                                                                                                                                                                                                                                                    BaulCH (1992)
  OH+CH2O = HCO+H2O 3.4300E+009 1.1800E+000 -4.4700E+002 !                                                                                                                                                                                                                                                                                                                                                                                    BaulCH (1992)
  H+HCO = CO+H2 9.0300E+013 0.0000E+000 0.0000E+000 !                                                                                                                                                                                                                                                                                                                                                                                    BaulCH (1992)
  O+HCO = CO2+H 3.0100E+013 0.0000E+000 0.0000E+000 !                                                                                                                                                                                                                                                                                                                                                                                    BaulCH (1992)
  O+HCO = CO+OH 3.0100E+013 0.0000E+000 0.0000E+000 !                                                                                                                                                                                                                                                                                                                                                                                    BaulCH (1992)
  OH+HCO = CO+H2O 1.0200E+014 0.0000E+000 0.0000E+000 !                                                                                                                                                                                                                                                                                                                                                                                    BaulCH (1992)
  O2+HCO = CO+HO2 3.0100E+012 0.0000E+000 0.0000E+000 !                                                                                                                                                                                                                                                                                                                                                                                    BaulCH (1992)
  HCO+M = CO+H+M 2.1800E+014 0.0000E+000 1.5765E+004 !                                                                                                                                                                                                                                                                                                                                                                                    BaulCH (1992) +40% Ou -13 % Miller (1992)
  H+CH2 = CH+H2 6.0200E+012 0.0000E+000 -1.7890E+003 !                                                                                                                                                                                                                                                                                                                                                                                    BaulCH (1992)
  O+CH2 = CO+H+H 1.2000E+014 0.0000E+000 0.0000E+000 !                                                                                                                                                                                                                                                                                                                                                                                    BaulCH (1992)
  O2+CH2 = CO2+H+H 2.4700E+013 0.0000E+000 1.4910E+003 !                                                                                                                                                                                                                                                                                                                                                                                    BaulCH (1992)
  O+CH = CO+H 3.9700E+013 0.0000E+000 0.0000E+000 !                                                                                                                                                                                                                                                                                                                                                                                    BaulCH (1992)
  O2+CH = CO+OH 3.3100E+013 0.0000E+000 0.0000E+000 !                                                                                                                                                                                                                                                                                                                                                                                    BaulCH (1992)
  H+HCCO = CH2(S)+CO 1.0000E+014 0.0000E+000 0.0000E+000 !                                                                                                                                                                                                                                                                                                                                                                                    Miller (1992)
  O+HCCO = CO+CO+H 9.6400E+013 0.0000E+000 0.0000E+000 !                                                                                                                                                                                                                                                                                                                                                                                    BaulCH (1992)
  HCCO+OH => HCO+CO+H 1.0000E+014 0.0000E+000 0.0000E+000 !                                                                                                                                                                                                                                                                                                                                                                                    Peeters (1996)
  HCCO+O2 => CO+CO+OH 1.6300E+012 0.0000E+000 8.5500E+002 !                                                                                                                                                                                                                                                                                                                                                                                    Peeters (1996)
  CH+CO2 = HCO+CO 3.4000E+012 0.0000E+000 6.9000E+002 !                                                                                                                                                                                                                                                                                                                                                                                    Miller (1992)
  CO+O+M = CO2+M 6.1700E+014 0.0000E+000 3.0000E+003 !                                                                                                                                                                                                                                                                                                                                                                                    Miller (1992)
  CO+O2 = CO2+O 2.5300E+012 0.0000E+000 4.7688E+004 !                                                                                                                                                                                                                                                                                                                                                                                    Miller (1992)
  HO2+CO = CO2+OH 5.8000E+013 0.0000E+000 2.2934E+004 !                                                                                                                                                                                                                                                                                                                                                                                    Miller (1992)
  CH2+CH2 = C2H2+H2 1.2000E+014 0.0000E+000 7.9500E+002 !                                                                                                                                                                                                                                                                                                                                                                                    BaulCH (1992)
  CH3+CH2 = C2H4+H 4.2200E+013 0.0000E+000 0.0000E+000 !                                                                                                                                                                                                                                                                                                                                                                                    BaulCH (1992)
  CH2(S)+M = CH2+M 1.0000E+013 0.0000E+000 0.0000E+000
   H /0.000000E+000/   H2O /0.000000E+000/   C2H2 /0.000000E+000/
  CH2(S)+CH4 = 2CH3 4.0000E+013 0.0000E+000 0.0000E+000 !                                                                                                                                                                                                                                                                                                                                                                                    Miller (1992)
  CH2(S)+C2H6 = CH3+C2H5 1.2000E+014 0.0000E+000 0.0000E+000 !                                                                                                                                                                                                                                                                                                                                                                                    Miller (1992)
  CH2(S)+O2 = CO+OH+H 7.0000E+013 0.0000E+000 0.0000E+000 !                                                                                                                                                                                                                                                                                                                                                                                    Miller (1992)
  CH2(S)+H2O = CH3+OH 7.5000E+006 2.0000E+000 5.0000E+003 !                                                                                                                                                                                                                                                    Richter (1999)
  CH2(S)+H2O = CH2+H2O 3.0000E+013 0.0000E+000 0.0000E+000 !                                                                                                                                                                                                                                                                                                                                                                                    Miller (1992)
  CH2(S)+C2H2 = CH2+C2H2 4.0000E+013 0.0000E+000 0.0000E+000 !                                                                                                                                                                                                                                                                                                                                                                                    Miller (1992)
  CH2(S)+H = CH2+H 2.0000E+014 0.0000E+000 0.0000E+000 !                                                                                                                                                                                                                                                                                                                                                                                    Miller (1992)
  CH2(S)+O = CO+2H 3.0000E+013 0.0000E+000 0.0000E+000 !                                                                                                                                                                                                                                                                                                                                                                                    Miller (1992)
  CH2(S)+OH = CH2O+H 3.0000E+013 0.0000E+000 0.0000E+000 !                                                                                                                                                                                                                                                                                                                                                                                    Miller (1992)
  CH2(S)+H = CH+H2 3.0000E+013 0.0000E+000 0.0000E+000 !                                                                                                                                                                                                                                                                                                                                                                                    Miller (1992)
  CH2(S)+CO2 = CH2O+CO 1.4000E+013 0.0000E+000 0.0000E+000 !                                                                                                                                                                                                                                                                                                                                                                                    Gri 1.2 (1995)
  CH2(S)+CH3 = C2H4+H 2.0000E+013 0.0000E+000 0.0000E+000 !                                                                                                                                                                                                                                                                                                                                                                                    Miller (1992)
  CH2(S)+CH2CO = C2H4+CO 1.6000E+014 0.0000E+000 0.0000E+000 !                                                                                                                                                                                                                                                                                                                                                                                    Miller (1992)
  H+CH2CO = CH3+CO 1.8100E+013 0.0000E+000 3.3800E+003 !                                                                                                                                                          Baulch (1992)
  O+CH2CO = HCO+HCO 2.2900E+012 0.0000E+000 1.3520E+003 !                                                                                                                                                                                                                                                                                                                                                                                    BaulCH (1992)
  OH+CH2CO = CH2O+HCO 1.0200E+013 0.0000E+000 0.0000E+000 !                                                                                                                                                                                                                                                                                                                                                                                    BaulCH (1992)
  CH2CO+M = CH2+CO+M 1.0000E+016 0.0000E+000 5.9324E+004 !                                                                                                                                                                                                                                                                                                                                                                                    Warnatz (1984)
  CH3CHO+O2 = CH3CO+HO2 3.0000E+013 0.0000E+000 3.9100E+004 !                                                                                                                                                                                                                                                                                                                                                                                    Davis (1999)
  CH3CHO+OH = CH3CO+H2O 2.3500E+010 7.3000E-001 -1.1100E+003 !                                                                                                                                                                                                                                                                                                                                                                                    Davis (1999)
  CH3CHO+H = CH3CO+H2 4.1000E+009 1.1600E+000 2.4000E+003 !                                                                                                                                                                                                                                                                                                                                                                                    Davis (1999)
  CH3CHO+O = CH3CO+OH 5.8000E+012 0.0000E+000 1.8000E+003 !                                                                                                                                                                                                                                                                                                                                                                                    Davis (1999)
  CH3CHO+CH3 = CH3CO+CH4 2.0000E-006 5.6000E+000 2.4600E+003 !                                                                                                                                                                                                                                                                                                                                                                                    Davis (1999)
  CH3CO+H = CH3+HCO 9.6000E+013 0.0000E+000 0.0000E+000 !                                                                                                                                                                                                                                                                                                                                                                                    Davis (1999)				